/*--------------------------------*- C++ -*----------------------------------*\
| =========                 |                                                 |
| \\      /  F ield         | OpenFOAM: The Open Source CFD Toolbox           |
|  \\    /   O peration     | Version:  2.0.0                                 |
|   \\  /    A nd           | Web:      www.OpenFOAM.org                      |
|    \\/     M anipulation  |                                                 |
\*---------------------------------------------------------------------------*/
FoamFile
{
    version     2.0;
    format      ascii;
    class       dictionary;
    location    "system";
    object      refineMeshDict;
}
// * * * * * * * * * * * * * * * * * * * * * * * * * * * * * * * * * * * * * //

set             ({[[set]]});

coordinateSystem ({[[coordinateSystem]]});

globalCoeffs
{
({[[globalCoeffs]]})
}

patchLocalCoeffs
{
    patch           ({[[patch]]});
({[[patchLocalCoeffs]]})
}

directions
(
({[[directions]]})
);

useHexTopology  ({[[useHexTopology]]});

geometricCut    ({[[geometricCut]]});

writeMesh       ({[[writeMesh]]});


// ************************************************************************* //

