/*--------------------------------*- C++ -*----------------------------------*\
| =========                 |                                                 |
| \\      /  F ield         | OpenFOAM: The Open Source CFD Toolbox           |
|  \\    /   O peration     | Version:  2.0.x                                 |
|   \\  /    A nd           | Web:      www.OpenFOAM.org                      |
|    \\/     M anipulation  |                                                 |
\*---------------------------------------------------------------------------*/
FoamFile
{
    version     2.0;
    format      ascii;
    class       dictionary;
    object      blockMeshDict;
}

convertToMeters    ({[[convertToMeters]]});

vertices
(
({[[vertices]]})
);

blocks
(
    hex ({[[vertexNumbers]]})
    ({[[numberOfCells]]})
    ({[[grading]]}) ({[[gradingNumbers]]})
);

edges
(
);

boundary
(
({[[boundaries]]})
);

mergePatchPairs
(
);