/*--------------------------------*- C++ -*----------------------------------*\
| =========                 |                                                 |
| \\      /  F ield         | OpenFOAM: The Open Source CFD Toolbox           |
|  \\    /   O peration     | Version:  2.1.1                                 |
|   \\  /    A nd           | Web:      www.OpenFOAM.org                      |
|    \\/     M anipulation  |                                                 |
\*---------------------------------------------------------------------------*/
FoamFile
{
    version     2.0;
    format      ascii;
    class       dictionary;
    object      decomposeParDict;
}

// * * * * * * * * * * * * * * * * * * * * * * * * * * * * * * * * * * * * * //

numberOfSubdomains ({[[numberOfSubdomains]]});

method    ({[[method]]});

hierarchicalCoeffs
{
    n          (({[[nx]]}) ({[[ny]]}) ({[[nz]]}));
    delta      ({[[detla]]});
    order      ({[[order]]});
}

// ************************************************************************* //
