/*--------------------------------*- C++ -*----------------------------------*\
| =========                 |                                                 |
| \\      /  F ield         | OpenFOAM: The Open Source CFD Toolbox           |
|  \\    /   O peration     | Version:  1.6                                   |
|   \\  /    A nd           | Web:      http://www.OpenFOAM.org               |
|    \\/     M anipulation  |                                                 |
\*---------------------------------------------------------------------------*/
FoamFile
{
    version     2.0;
    format      ascii;
    class       dictionary;
    object      turbineArrayProperties;
}
// * * * * * * * * * * * * * * * * * * * * * * * * * * * * * * * * * * * * * //

general
{
  yawAngle                ({[[yawAngle]]});
  numberofBld             ({[[numberofBld]]});
  numberofBldPts          ({[[numberofBldPts]]});           
  rotorDiameter           ({[[rotorDiameter]]});
  epsilon                 ({[[epsilon]]});
  smearRadius             ({[[smearRadius]]});
  effectiveRadiusFactor   ({[[effectiveRadiusFactor]]});
  pointInterpType         ({[[pointInterpType]]});
}
