/*--------------------------------*- C++ -*----------------------------------*\
| =========                 |                                                 |
| \\      /  F ield         | OpenFOAM: The Open Source CFD Toolbox           |
|  \\    /   O peration     | Version:  2.0.x                                 |
|   \\  /    A nd           | Web:      www.OpenFOAM.org                      |
|    \\/     M anipulation  |                                                 |
\*---------------------------------------------------------------------------*/
FoamFile
{
    version     2.0;
    format      ascii;
    class       dictionary;
    location    "system";
    object      fvSchemes;
}
// * * * * * * * * * * * * * * * * * * * * * * * * * * * * * * * * * * * * * //

ddtSchemes
{
({[[ddtSchemes]]})}

gradSchemes
{
({[[gradSchemes]]})}

divSchemes
{
({[[divSchemes]]})}

laplacianSchemes
{
({[[laplacianSchemes]]})}

interpolationSchemes
{
({[[interpolationSchemes]]})}

snGradSchemes
{
({[[snGradSchemes]]})}

fluxRequired
{
({[[fluxRequired]]})}

// ************************************************************************* //
